15F6D569       0   11A82       4FFF8CAFE
      1C      3D7FDD26603FC937FF
A4C1FB213FE84A233CE376803F814CEDB891CC803FE06243EDB3CAF43FDE2C6E
C92D7D223FDBA35CA53056E03FA604CA99239FC33FEB9DE99B93A2B73FEA074F
195F66283FD12D1FF0DB99B93FE24E56E048B8BC3FE0ECDA79EBCA5A3FDE34DF
BE409D483FDF0A8E7455A5173FE9D182A19B560B3FEDA04E212DC3883FC2C0CD
F2E061E03FCEB711692357FC3FC182F0EED18AE03FDF89DD6BA8E4C03FAA0067
8882E9AA3FE2BA479FCE56443FECF68E462F0DCE3FE99BE67E4C51003F83AD74
C2E31C963FE754344224A1523FDC56CCA3C6435C3FE684AFE278F9853FE91753
A14AB5603FC6733A50F88C943FD1BB6B 2CA75653FE88CB2AC1FD0FF3FED56FB
F669F8383FC9EEF044898A853FE7CA1C7E46BB193FECF6085C5775B43FE7B0EE
8BD8770B3FEEE0BF7C78D3803FB92D719D5329BA3FDAEBD4EC66CE2B3FEF7642
F1B1B2EE3FE2ADBD12FDABA43FDBB1722DF1FB983FB7DBB74CAAF12A3FDFFA8F
 79903603FECE7CFADB3D55E3FEDDE7ED01FCB0C3FD3B80C8CAA83E23FE827B1
22C2AFC03FD8847015829CE23FD5362CF89FEECA3FDE84401BD37FF03FB71EBD
B0E79E383FEA0427D64CD7423FE3AA12963B2A823FE863CA27D8FEC93FE1C518
5D30F5003FDA82F9ED74D5973FE308F4B5B9845E3FD31967C149EF5A3FD0A929
4C94D9FE3FEC28B68E4E59033FE89CE5F0D176EF3FE7D36321FD87CB3FE512F5
FDE6CE913FE01A951F3740303FA8D7EEA2EE59B93FE59103E6B9AF803FCF9A00
EC5715E73FE6C76BB11C7B843FEF1CD4 36B87FA3FE0FC326F63253B3FEB6F10
DC29EBA03FB038B22800893C3FEF7DE4CD8C8B813FEBA9FB6306D8A03F9D6D9F
433E36063FD1EE68B22C80083FB5B692FFC34B643FE5ECB8B298A62C3FE8C1AE
3CBBB40D3FE571029188E73C3FD9E177CDA759C93FE0E58A88FE01C03F81E290
E3B81C203FCF66A84CE5D1663FE2A54247DA81BA3FE97535B3DDCB763FECEAD5
2A5B10243FD253EBD57A89A23FEE03FDC172920C3FC169ED80BA0B7C3FDDBADD
73F433583FDED0AA91F468623FE0F08F45117AD43FC2C254580253223FEA75DC
3A48C4CA3FD65F0B
